
     RDKit          3D

 55 58  0  0  0  0  0  0  0  0999 V2000
   53.4180   39.1190   68.8120 C   0  0  0  0  0  0  0  0  0  0  0  0
   54.5520   39.1290   69.6150 N   0  0  0  0  0  0  0  0  0  0  0  0
   53.3030   40.0280   67.7800 O   0  0  0  0  0  0  0  0  0  0  0  0
   47.9420   38.1910   66.3410 Cl  0  0  0  0  0  0  0  0  0  0  0  0
   52.3980   38.2780   69.0010 N   0  0  0  0  0  0  0  0  0  0  0  0
   53.0300   41.4820   72.7210 O   0  0  0  0  0  0  0  0  0  0  0  0
   51.5710   38.6750   68.0190 C   0  0  0  0  0  0  0  0  0  0  0  0
   54.9480   41.1860   71.4700 N   0  0  0  0  0  0  0  0  0  0  0  0
   50.2950   38.1660   67.7380 C   0  0  0  0  0  0  0  0  0  0  0  0
   49.5660   38.7560   66.6900 C   0  0  0  0  0  0  0  0  0  0  0  0
   50.1130   39.8140   65.9330 C   0  0  0  0  0  0  0  0  0  0  0  0
   51.4000   40.3030   66.2250 C   0  0  0  0  0  0  0  0  0  0  0  0
   52.0880   39.7030   67.2920 C   0  0  0  0  0  0  0  0  0  0  0  0
   55.7010   40.0180   69.3170 C   0  0  0  0  0  0  0  0  0  0  0  0
   55.6440   41.3290   70.1540 C   0  0  0  0  0  0  0  0  0  0  0  0
   55.5660   40.2620   72.4440 C   0  0  0  0  0  0  0  0  0  0  0  0
   55.6990   38.8020   71.9090 C   0  0  0  0  0  0  0  0  0  0  0  0
   54.5720   38.3820   70.9070 C   0  0  0  0  0  0  0  0  0  0  0  0
   53.6690   41.7260   71.7030 C   0  0  0  0  0  0  0  0  0  0  0  0
   53.0820   42.6390   70.6700 C   0  0  0  0  0  0  0  0  0  0  0  0
   53.5830   43.9470   70.4530 C   0  0  0  0  0  0  0  0  0  0  0  0
   52.9330   44.7970   69.5570 C   0  0  0  0  0  0  0  0  0  0  0  0
   51.7910   44.3600   68.8570 C   0  0  0  0  0  0  0  0  0  0  0  0
   51.3220   43.0440   69.0350 C   0  0  0  0  0  0  0  0  0  0  0  0
   51.9620   42.1930   69.9410 C   0  0  0  0  0  0  0  0  0  0  0  0
   50.1040   42.5660   68.2720 C   0  0  0  0  0  0  0  0  0  0  0  0
   56.9110   40.8140   72.9610 C   0  0  0  0  0  0  0  0  0  0  0  0
   49.8870   37.3520   68.3300 H   0  0  0  0  0  0  0  0  0  0  0  0
   49.5210   40.2730   65.1360 H   0  0  0  0  0  0  0  0  0  0  0  0
   51.8370   41.1170   65.6530 H   0  0  0  0  0  0  0  0  0  0  0  0
   56.6520   39.5060   69.5070 H   0  0  0  0  0  0  0  0  0  0  0  0
   55.7210   40.2760   68.2460 H   0  0  0  0  0  0  0  0  0  0  0  0
   55.1500   42.0740   69.5320 H   0  0  0  0  0  0  0  0  0  0  0  0
   56.6680   41.6980   70.3140 H   0  0  0  0  0  0  0  0  0  0  0  0
   54.9090   40.1980   73.3210 H   0  0  0  0  0  0  0  0  0  0  0  0
   56.6790   38.6500   71.4490 H   0  0  0  0  0  0  0  0  0  0  0  0
   55.6670   38.1240   72.7590 H   0  0  0  0  0  0  0  0  0  0  0  0
   53.6010   38.5140   71.4070 H   0  0  0  0  0  0  0  0  0  0  0  0
   54.6650   37.3020   70.7000 H   0  0  0  0  0  0  0  0  0  0  0  0
   53.3010   45.8100   69.3920 H   0  0  0  0  0  0  0  0  0  0  0  0
   51.2790   45.0220   68.1640 H   0  0  0  0  0  0  0  0  0  0  0  0
   51.5950   41.1810   70.0860 H   0  0  0  0  0  0  0  0  0  0  0  0
   57.3100   40.1890   73.7700 H   0  0  0  0  0  0  0  0  0  0  0  0
   56.7850   41.8240   73.3660 H   0  0  0  0  0  0  0  0  0  0  0  0
   57.6670   40.8490   72.1660 H   0  0  0  0  0  0  0  0  0  0  0  0
   49.9300   41.4890   68.3930 H   0  0  0  0  0  0  0  0  0  0  0  0
   50.2100   42.7600   67.1970 H   0  0  0  0  0  0  0  0  0  0  0  0
   49.2050   43.0860   68.6130 H   0  0  0  0  0  0  0  0  0  0  0  0
   55.5460   45.4430   70.2830 C   0  0  0  0  0  0  0  0  0  0  0  0
   54.8300   44.4050   71.1500 C   0  0  0  0  0  0  0  0  0  0  0  0
   54.8880   46.2950   70.1190 H   0  0  0  0  0  0  0  0  0  0  0  0
   56.4520   45.7760   70.7900 H   0  0  0  0  0  0  0  0  0  0  0  0
   55.8090   44.9960   69.3250 H   0  0  0  0  0  0  0  0  0  0  0  0
   55.4890   43.5520   71.3150 H   0  0  0  0  0  0  0  0  0  0  0  0
   54.5670   44.8520   72.1090 H   0  0  0  0  0  0  0  0  0  0  0  0
 21 20  1  0
 21 22  1  0
 21 50  1  0
 49 50  1  0
 49 51  1  0
 49 52  1  0
 49 53  1  0
 50 54  1  0
 50 55  1  0
  2  1  1  0
  3  1  1  0
  5  1  1  0
  7  5  1  0
  9  7  1  0
 10  4  1  0
 10  9  1  0
 11 10  1  0
 12 11  1  0
 13 12  1  0
 13  7  1  0
 13  3  1  0
 14  2  1  0
 15 14  1  0
 15  8  1  0
 16  8  1  0
 17 16  1  0
 18  2  1  0
 18 17  1  0
 19  6  1  0
 19  8  1  0
 20 19  1  0
 23 22  1  0
 24 23  1  0
 25 24  1  0
 25 20  1  0
 26 24  1  0
 27 16  1  0
 28  9  1  0
 29 11  1  0
 30 12  1  0
 31 14  1  0
 32 14  1  0
 33 15  1  0
 34 15  1  0
 35 16  1  0
 36 17  1  0
 37 17  1  0
 38 18  1  0
 39 18  1  0
 40 22  1  0
 41 23  1  0
 42 25  1  0
 43 27  1  0
 44 27  1  0
 45 27  1  0
 46 26  1  0
 47 26  1  0
 48 26  1  0
M  END
$$$$
