
     RDKit          3D

 57 61  0  0  0  0  0  0  0  0999 V2000
   53.4500   39.1400   68.7300 C   0  0  0  0  0  0  0  0  0  0  0  0
   54.6000   39.1400   69.5100 N   0  0  0  0  0  0  0  0  0  0  0  0
   53.3300   40.0400   67.6900 O   0  0  0  0  0  0  0  0  0  0  0  0
   47.9100   38.2800   66.3800 Cl  0  0  0  0  0  0  0  0  0  0  0  0
   52.4200   38.3200   68.9500 N   0  0  0  0  0  0  0  0  0  0  0  0
   53.1600   41.5000   72.6500 O   0  0  0  0  0  0  0  0  0  0  0  0
   51.5800   38.7200   67.9800 C   0  0  0  0  0  0  0  0  0  0  0  0
   55.0500   41.1900   71.3600 N   0  0  0  0  0  0  0  0  0  0  0  0
   50.2900   38.2300   67.7300 C   0  0  0  0  0  0  0  0  0  0  0  0
   54.9100   44.3500   70.9500 N   0  0  0  0  0  0  0  0  0  0  0  0
   49.5500   38.8200   66.6900 C   0  0  0  0  0  0  0  0  0  0  0  0
   55.7900   45.1900   70.3300 N   0  0  0  0  0  0  0  0  0  0  0  0
   50.1000   39.8600   65.9100 C   0  0  0  0  0  0  0  0  0  0  0  0
   55.0600   44.4900   72.3000 N   0  0  0  0  0  0  0  0  0  0  0  0
   51.4000   40.3300   66.1700 C   0  0  0  0  0  0  0  0  0  0  0  0
   52.1000   39.7300   67.2300 C   0  0  0  0  0  0  0  0  0  0  0  0
   55.7500   40.0200   69.1900 C   0  0  0  0  0  0  0  0  0  0  0  0
   55.7200   41.3300   70.0300 C   0  0  0  0  0  0  0  0  0  0  0  0
   55.6800   40.2600   72.3200 C   0  0  0  0  0  0  0  0  0  0  0  0
   55.7900   38.8000   71.7800 C   0  0  0  0  0  0  0  0  0  0  0  0
   54.6400   38.3900   70.8000 C   0  0  0  0  0  0  0  0  0  0  0  0
   53.7800   41.7400   71.6200 C   0  0  0  0  0  0  0  0  0  0  0  0
   53.1800   42.6600   70.6000 C   0  0  0  0  0  0  0  0  0  0  0  0
   53.7100   43.9500   70.3500 C   0  0  0  0  0  0  0  0  0  0  0  0
   53.0500   44.8100   69.4700 C   0  0  0  0  0  0  0  0  0  0  0  0
   51.8700   44.4000   68.8200 C   0  0  0  0  0  0  0  0  0  0  0  0
   51.3700   43.1000   69.0300 C   0  0  0  0  0  0  0  0  0  0  0  0
   52.0200   42.2400   69.9200 C   0  0  0  0  0  0  0  0  0  0  0  0
   56.3700   46.0100   71.2900 C   0  0  0  0  0  0  0  0  0  0  0  0
   55.9100   45.5700   72.5400 C   0  0  0  0  0  0  0  0  0  0  0  0
   50.1100   42.6500   68.3200 C   0  0  0  0  0  0  0  0  0  0  0  0
   57.0400   40.8000   72.8100 C   0  0  0  0  0  0  0  0  0  0  0  0
   49.8800   37.4300   68.3400 H   0  0  0  0  0  0  0  0  0  0  0  0
   56.0100   45.1300   69.3500 H   0  0  0  0  0  0  0  0  0  0  0  0
   49.5000   40.3200   65.1200 H   0  0  0  0  0  0  0  0  0  0  0  0
   54.7000   43.8200   72.9600 H   0  0  0  0  0  0  0  0  0  0  0  0
   51.8400   41.1300   65.5800 H   0  0  0  0  0  0  0  0  0  0  0  0
   56.7000   39.5000   69.3600 H   0  0  0  0  0  0  0  0  0  0  0  0
   55.7500   40.2800   68.1200 H   0  0  0  0  0  0  0  0  0  0  0  0
   55.2200   42.0800   69.4200 H   0  0  0  0  0  0  0  0  0  0  0  0
   56.7500   41.6900   70.1700 H   0  0  0  0  0  0  0  0  0  0  0  0
   55.0400   40.2000   73.2100 H   0  0  0  0  0  0  0  0  0  0  0  0
   56.7600   38.6400   71.3000 H   0  0  0  0  0  0  0  0  0  0  0  0
   55.7700   38.1200   72.6300 H   0  0  0  0  0  0  0  0  0  0  0  0
   53.6800   38.5300   71.3200 H   0  0  0  0  0  0  0  0  0  0  0  0
   54.7200   37.3100   70.5900 H   0  0  0  0  0  0  0  0  0  0  0  0
   53.4400   45.8100   69.2800 H   0  0  0  0  0  0  0  0  0  0  0  0
   51.3500   45.0700   68.1400 H   0  0  0  0  0  0  0  0  0  0  0  0
   51.6300   41.2400   70.0900 H   0  0  0  0  0  0  0  0  0  0  0  0
   57.0800   46.7900   71.0500 H   0  0  0  0  0  0  0  0  0  0  0  0
   56.1600   45.9000   73.5400 H   0  0  0  0  0  0  0  0  0  0  0  0
   57.4500   40.1700   73.6100 H   0  0  0  0  0  0  0  0  0  0  0  0
   56.9300   41.8100   73.2200 H   0  0  0  0  0  0  0  0  0  0  0  0
   57.7800   40.8300   72.0000 H   0  0  0  0  0  0  0  0  0  0  0  0
   49.9100   41.5800   68.4600 H   0  0  0  0  0  0  0  0  0  0  0  0
   50.1800   42.8300   67.2400 H   0  0  0  0  0  0  0  0  0  0  0  0
   49.2400   43.2000   68.6900 H   0  0  0  0  0  0  0  0  0  0  0  0
  2  1  1  0
  3  1  1  0
  5  1  1  0
  7  5  1  0
  9  7  1  0
 11  4  1  0
 11  9  1  0
 12 10  1  0
 13 11  1  0
 14 10  1  0
 15 13  1  0
 16 15  1  0
 16  7  1  0
 16  3  1  0
 17  2  1  0
 18 17  1  0
 18  8  1  0
 19  8  1  0
 20 19  1  0
 21  2  1  0
 21 20  1  0
 22  6  1  0
 22  8  1  0
 23 22  1  0
 24 23  1  0
 24 10  1  0
 25 24  1  0
 26 25  1  0
 27 26  1  0
 28 27  1  0
 28 23  1  0
 29 12  1  0
 30 29  1  0
 30 14  1  0
 31 27  1  0
 32 19  1  0
 33  9  1  0
 34 12  1  0
 35 13  1  0
 36 14  1  0
 37 15  1  0
 38 17  1  0
 39 17  1  0
 40 18  1  0
 41 18  1  0
 42 19  1  0
 43 20  1  0
 44 20  1  0
 45 21  1  0
 46 21  1  0
 47 25  1  0
 48 26  1  0
 49 28  1  0
 50 29  1  0
 51 30  1  0
 52 32  1  0
 53 32  1  0
 54 32  1  0
 55 31  1  0
 56 31  1  0
 57 31  1  0
M  END
$$$$
