
     RDKit          3D

 59 63  0  0  0  0  0  0  0  0999 V2000
   53.3030   39.0130   68.5470 C   0  0  0  0  0  0  0  0  0  0  0  0
   54.4870   38.9990   69.2740 N   0  0  0  0  0  0  0  0  0  0  0  0
   53.1370   39.9300   67.5280 O   0  0  0  0  0  0  0  0  0  0  0  0
   47.6590   38.2000   66.4390 Cl  0  0  0  0  0  0  0  0  0  0  0  0
   52.2820   38.1910   68.8010 N   0  0  0  0  0  0  0  0  0  0  0  0
   53.2030   41.3250   72.5050 O   0  0  0  0  0  0  0  0  0  0  0  0
   51.3990   38.6080   67.8770 C   0  0  0  0  0  0  0  0  0  0  0  0
   55.0300   41.0240   71.1260 N   0  0  0  0  0  0  0  0  0  0  0  0
   50.0980   38.1240   67.6780 C   0  0  0  0  0  0  0  0  0  0  0  0
   49.3130   38.7320   66.6830 C   0  0  0  0  0  0  0  0  0  0  0  0
   49.8290   39.7830   65.8950 C   0  0  0  0  0  0  0  0  0  0  0  0
   51.1410   40.2470   66.1030 C   0  0  0  0  0  0  0  0  0  0  0  0
   51.8870   39.6290   67.1200 C   0  0  0  0  0  0  0  0  0  0  0  0
   55.6250   39.8780   68.9130 C   0  0  0  0  0  0  0  0  0  0  0  0
   55.6390   41.1770   69.7690 C   0  0  0  0  0  0  0  0  0  0  0  0
   55.6990   40.0790   72.0450 C   0  0  0  0  0  0  0  0  0  0  0  0
   55.7780   38.6260   71.4830 C   0  0  0  0  0  0  0  0  0  0  0  0
   54.5820   38.2320   70.5520 C   0  0  0  0  0  0  0  0  0  0  0  0
   53.7760   41.5750   71.4510 C   0  0  0  0  0  0  0  0  0  0  0  0
   53.1340   42.5100   70.4710 C   0  0  0  0  0  0  0  0  0  0  0  0
   53.6670   43.7960   70.2010 C   0  0  0  0  0  0  0  0  0  0  0  0
   52.9720   44.6700   69.3640 C   0  0  0  0  0  0  0  0  0  0  0  0
   51.7540   44.2800   68.7750 C   0  0  0  0  0  0  0  0  0  0  0  0
   51.2490   42.9850   69.0030 C   0  0  0  0  0  0  0  0  0  0  0  0
   51.9340   42.1100   69.8510 C   0  0  0  0  0  0  0  0  0  0  0  0
   49.9470   42.5560   68.3580 C   0  0  0  0  0  0  0  0  0  0  0  0
   57.0820   40.6080   72.4790 C   0  0  0  0  0  0  0  0  0  0  0  0
   49.7140   37.3160   68.2940 H   0  0  0  0  0  0  0  0  0  0  0  0
   49.1950   40.2570   65.1400 H   0  0  0  0  0  0  0  0  0  0  0  0
   51.5550   41.0550   65.5060 H   0  0  0  0  0  0  0  0  0  0  0  0
   56.5800   39.3520   69.0330 H   0  0  0  0  0  0  0  0  0  0  0  0
   55.5780   40.1510   67.8470 H   0  0  0  0  0  0  0  0  0  0  0  0
   55.1160   41.9370   69.1920 H   0  0  0  0  0  0  0  0  0  0  0  0
   56.6760   41.5320   69.8660 H   0  0  0  0  0  0  0  0  0  0  0  0
   55.1000   40.0110   72.9630 H   0  0  0  0  0  0  0  0  0  0  0  0
   56.7240   38.4680   70.9570 H   0  0  0  0  0  0  0  0  0  0  0  0
   55.7930   37.9350   72.3250 H   0  0  0  0  0  0  0  0  0  0  0  0
   53.6480   38.3700   71.1160 H   0  0  0  0  0  0  0  0  0  0  0  0
   54.6480   37.1550   70.3250 H   0  0  0  0  0  0  0  0  0  0  0  0
   53.3640   45.6670   69.1600 H   0  0  0  0  0  0  0  0  0  0  0  0
   51.2070   44.9620   68.1280 H   0  0  0  0  0  0  0  0  0  0  0  0
   51.5410   41.1140   70.0350 H   0  0  0  0  0  0  0  0  0  0  0  0
   57.5260   39.9660   73.2520 H   0  0  0  0  0  0  0  0  0  0  0  0
   56.9960   41.6130   72.9060 H   0  0  0  0  0  0  0  0  0  0  0  0
   57.7850   40.6450   71.6370 H   0  0  0  0  0  0  0  0  0  0  0  0
   49.7410   41.4880   68.5020 H   0  0  0  0  0  0  0  0  0  0  0  0
   49.9610   42.7430   67.2770 H   0  0  0  0  0  0  0  0  0  0  0  0
   49.1050   43.1140   68.7780 H   0  0  0  0  0  0  0  0  0  0  0  0
   54.9910   44.2030   70.7770 C   0  0  2  0  0  0  0  0  0  0  0  0
   54.9250   45.4830   71.6270 C   0  0  0  0  0  0  0  0  0  0  0  0
   56.2650   45.8820   70.9890 C   0  0  0  0  0  0  0  0  0  0  0  0
   55.8720   44.9940   69.7960 C   0  0  0  0  0  0  0  0  0  0  0  0
   55.5110   43.3790   71.2660 H   0  0  0  0  0  0  0  0  0  0  0  0
   54.1000   46.1430   71.3590 H   0  0  0  0  0  0  0  0  0  0  0  0
   54.9890   45.2990   72.7000 H   0  0  0  0  0  0  0  0  0  0  0  0
   56.3330   46.9410   70.7410 H   0  0  0  0  0  0  0  0  0  0  0  0
   57.1350   45.5180   71.5360 H   0  0  0  0  0  0  0  0  0  0  0  0
   56.7020   44.4150   69.3910 H   0  0  0  0  0  0  0  0  0  0  0  0
   55.3060   45.5210   69.0280 H   0  0  0  0  0  0  0  0  0  0  0  0
 21 20  1  0
 21 22  1  0
 21 49  1  0
 49 50  1  0
 49 52  1  0
 49 53  1  1
 50 51  1  0
 50 54  1  0
 50 55  1  0
 51 52  1  0
 51 56  1  0
 51 57  1  0
 52 58  1  0
 52 59  1  0
  2  1  1  0
  3  1  1  0
  5  1  1  0
  7  5  1  0
  9  7  1  0
 10  4  1  0
 10  9  1  0
 11 10  1  0
 12 11  1  0
 13 12  1  0
 13  7  1  0
 13  3  1  0
 14  2  1  0
 15 14  1  0
 15  8  1  0
 16  8  1  0
 17 16  1  0
 18  2  1  0
 18 17  1  0
 19  6  1  0
 19  8  1  0
 20 19  1  0
 23 22  1  0
 24 23  1  0
 25 24  1  0
 25 20  1  0
 26 24  1  0
 27 16  1  0
 28  9  1  0
 29 11  1  0
 30 12  1  0
 31 14  1  0
 32 14  1  0
 33 15  1  0
 34 15  1  0
 35 16  1  0
 36 17  1  0
 37 17  1  0
 38 18  1  0
 39 18  1  0
 40 22  1  0
 41 23  1  0
 42 25  1  0
 43 27  1  0
 44 27  1  0
 45 27  1  0
 46 26  1  0
 47 26  1  0
 48 26  1  0
M  END
$$$$
